
Delft3D-Flexible-Mesh-Python
############################

Beschrijving
============
Python tooling om HyDAMO GML's om te zetten naar invoer voor 1D/2D Hydro.

Specificaties
=============

.. csv-table:: 
   :file: Delft3D-Flexible-Mesh-Python.csv
   :stub-columns: 1

