
Delft3D-Flexible-Mesh-Python
############################

Beschrijving
============
Python tooling om D-HYDRO 1D2D modellen te genereren, met name via de D-HyDAMO tool. Wordt momenteel gemigreerd naar HYDROLIB.

Specificaties
=============

.. csv-table:: 
   :file: Delft3D-Flexible-Mesh-Python.csv
   :stub-columns: 1

