
D-HyDAMO_D-Hydro
################

Beschrijving
============
een modelgenerator waarmee volledig geautomatiseerd een 1D2D-RR D-HYDRO model kan worden gegenereerd op basis van oppervlaktewaterdata in HyDAMO en andere bronnen

Specificaties
=============

.. csv-table:: 
   :file: index.csv
   :stub-columns: 1

Gereedschappen
==============


.. toctree:: 
   :numbered:
   :maxdepth: 1

   validatietoolbox-backend
   validatietoolbox-frontend
   ToHyDAMOgml
   Delft3D-Flexible-Mesh-Python
   HyDAMO-toolbox
   D-Hydro Suite 1D2D
